LTspice 24.1.2 for Windows
Circuit: C:\Users\cargi\Documents\Projects\FMCW\Draft1.net
Start Time: Thu Jun  5 08:54:10 2025
solver = Normal
Maximum thread count: 20
tnom = 27
temp = 27
method = trap
.OP point found by inspection.
Total elapsed time: 0.114 seconds.

Files loaded:
C:\Users\cargi\Documents\Projects\FMCW\Draft1.net

