LTspice 24.1.2 for Windows
Circuit: C:\Users\cargi\Documents\Projects\FMCW\sim.net
Start Time: Mon Jun  9 15:49:47 2025
solver = Normal
Maximum thread count: 20
tnom = 27
temp = 27
method = trap
.OP point found by inspection.
Total elapsed time: 0.081 seconds.

Files loaded:
C:\Users\cargi\Documents\Projects\FMCW\sim.net

